# ------------------------
# modal_steel_plate
# ------------------------
#
# None
#
#
# Author: None
# Description: None
# Date: 14/01/2025 11:14:08
# Generated by:
#   compas_fea2 v0.3.1
#   compas_fea2_opensees v0.2.0
#
#------------------------------------------------------------------
#------------------------------------------------------------------
# MODEL
#------------------------------------------------------------------
#------------------------------------------------------------------
#
##
# By default, models in compas_fea2 are defined in 3D.
model Basic -ndm 3
#
#==================================================================
# Materials
#==================================================================
#
uniaxialMaterial Elastic 0 210000.0
nDMaterial ElasticIsotropic 1000 210000.0 0.2 7.800000000000002e-09
#
#==================================================================
# Sections
#==================================================================
#

#
#==================================================================
# Parts
#==================================================================
#
#
#------------------------------------------------------------------
# Part OP_5386049376
#------------------------------------------------------------------
model Basic -ndm 3 -ndf 3
#
# Nodes
#------------------------------------------------------------------
#
#    tag        X       Y       Z       mx      my      mz
node 0      0.00000000    333.33333333     -5.00000000 -mass      1.00000000      1.00000000      1.00000000
node 1    300.00000000    333.33333333     -5.00000000 -mass      1.00000000      1.00000000      1.00000000
node 2    300.00000000      0.00000000     -5.00000000 -mass      1.00000000      1.00000000      1.00000000
node 3      0.00000000      0.00000000     -5.00000000 -mass      1.00000000      1.00000000      1.00000000
node 4      0.00000000    666.66666667     -5.00000000 -mass      1.00000000      1.00000000      1.00000000
node 5    300.00000000    666.66666667     -5.00000000 -mass      1.00000000      1.00000000      1.00000000
node 6      0.00000000   1000.00000000     -5.00000000 -mass      1.00000000      1.00000000      1.00000000
node 7    300.00000000   1000.00000000     -5.00000000 -mass      1.00000000      1.00000000      1.00000000
node 8    600.00000000    333.33333333     -5.00000000 -mass      1.00000000      1.00000000      1.00000000
node 9    600.00000000      0.00000000     -5.00000000 -mass      1.00000000      1.00000000      1.00000000
node 10    600.00000000    666.66666667     -5.00000000 -mass      1.00000000      1.00000000      1.00000000
node 11    600.00000000   1000.00000000     -5.00000000 -mass      1.00000000      1.00000000      1.00000000
node 12    900.00000000    333.33333333     -5.00000000 -mass      1.00000000      1.00000000      1.00000000
node 13    900.00000000      0.00000000     -5.00000000 -mass      1.00000000      1.00000000      1.00000000
node 14    900.00000000    666.66666667     -5.00000000 -mass      1.00000000      1.00000000      1.00000000
node 15    900.00000000   1000.00000000     -5.00000000 -mass      1.00000000      1.00000000      1.00000000
node 16   1200.00000000    333.33333333     -5.00000000 -mass      1.00000000      1.00000000      1.00000000
node 17   1200.00000000      0.00000000     -5.00000000 -mass      1.00000000      1.00000000      1.00000000
node 18   1200.00000000    666.66666667     -5.00000000 -mass      1.00000000      1.00000000      1.00000000
node 19   1200.00000000   1000.00000000     -5.00000000 -mass      1.00000000      1.00000000      1.00000000
# ... 135 like lines cut
#
# Elements
#------------------------------------------------------------------
#
element FourNodeTetrahedron 0 53 2 47 148 1000
element FourNodeTetrahedron 1 9 2 53 148 1000
element FourNodeTetrahedron 2 29 25 69 153 1000
element FourNodeTetrahedron 3 69 73 29 153 1000
element FourNodeTetrahedron 4 69 25 21 150 1000
element FourNodeTetrahedron 5 65 69 21 150 1000
element FourNodeTetrahedron 6 15 58 126 96 1000
element FourNodeTetrahedron 7 56 98 58 128 1000
element FourNodeTetrahedron 8 52 91 9 121 1000
element FourNodeTetrahedron 9 127 13 56 97 1000
element FourNodeTetrahedron 10 139 32 77 109 1000
element FourNodeTetrahedron 11 120 51 5 90 1000
element FourNodeTetrahedron 12 12 125 58 95 1000
element FourNodeTetrahedron 13 51 5 93 123 1000
element FourNodeTetrahedron 14 74 107 28 137 1000
element FourNodeTetrahedron 15 136 25 68 106 1000
element FourNodeTetrahedron 16 37 145 115 36 1000
element FourNodeTetrahedron 17 86 116 40 146 1000
element FourNodeTetrahedron 18 91 9 121 148 1000
element FourNodeTetrahedron 19 25 133 103 150 1000
# ... 375 like lines cut
#
#
#
#
#------------------------------------------------------------------
# Initial conditions
#------------------------------------------------------------------
#
#    tag   DX   DY   RZ   MX   MY   MZ
fix 44 1 1 1
fix 45 1 1 1
fix 48 1 1 1
fix 50 1 1 1
fix 85 1 1 1
fix 84 1 1 1
fix 86 1 1 1
fix 87 1 1 1
fix 3 1 1 1
fix 0 1 1 1
fix 4 1 1 1
fix 6 1 1 1
fix 41 1 1 1
fix 40 1 1 1
fix 42 1 1 1
fix 43 1 1 1
#
#
#------------------------------------------------------------------
# Connectors
#------------------------------------------------------------------
#

#
#
#
#
# -----------------------------------------------------------------
# -----------------------------------------------------------------
# PROBLEM
# -----------------------------------------------------------------
# -----------------------------------------------------------------
#
##
#
# STEP OMA_5399505344
#
# Define the number of modes to compute
set numModes 6
#
# - Analysis Parameters
#   -------------------

# Compute eigenvalues (lambda) for the first 'numModes' modes
set eigenValues [eigen $numModes]
record

#
# - Output Results
#   --------------

set eigenFile [open "eigenvalues.out" "w"]

puts "------------------------------------------------------------------"
puts "Modal Analysis Results:"
puts "  Mode :   Lambda        Omega (rad/s)    Freq (Hz)   Period (s)"
puts "------------------------------------------------------------------"

for {set iMode 1} {$iMode <= $numModes} {incr iMode} {
    # lambda = eigenvalue
    set lambda   [lindex $eigenValues [expr $iMode-1]]
    set omega    [expr sqrt($lambda)]            ;# rad/s
    set freqHz   [expr $omega/(2.0*3.14159265359)]
    set Period   [expr 1.0/$freqHz]
    puts "   $iMode   :   $lambda   $omega   $freqHz  $Period"
    puts $eigenFile "$iMode $lambda $omega $freqHz $Period"
}
puts "Modal analysis results have been exported to eigen.out"
close $eigenFile
#
set nNodes 155

# Open a file for all eigenvectors
set shapeFile [open "eigenvectors.out" "w"]

for {set iMode 1} {$iMode <= $numModes} {incr iMode} {
    for {set iNode 0} {$iNode < $nNodes} {incr iNode} {
        puts $shapeFile [format "%d %d %s" $iMode $iNode [nodeEigenvector $iNode $iMode]]
    }
}
close $shapeFile


modalProperties -print -file "ModalReport.out" -unorm

#

