# ------------------------
# plate
# ------------------------
#
# None
#
#
# Author: None
# Description: None
# Date: 02/01/2025 16:50:34
# Generated by:
#   compas_fea2 v0.2.1
#   compas_fea2_opensees v0.1.0
#
#------------------------------------------------------------------
#------------------------------------------------------------------
# MODEL
#------------------------------------------------------------------
#------------------------------------------------------------------
#
##
model Basic -ndm 3 -ndf 3
#
#==================================================================
# Materials
#==================================================================
#
uniaxialMaterial Elastic 0 210000.0
nDMaterial ElasticIsotropic 1000 210000.0 0.2 7.800000000000002e-09
#
#==================================================================
# Sections
#==================================================================
#
section ElasticMembranePlateSection 0 210000.0 0.2 50 7.800000000000002e-09
#
#==================================================================
# Parts
#==================================================================
#
#
#------------------------------------------------------------------
# Part OP_5871020144
#------------------------------------------------------------------
model Basic -ndm 3 -ndf 6
#
# Nodes
#------------------------------------------------------------------
#
#    tag        X       Y       Z       mx      my      mz
node 42    900.000   2700.000      0.000
node 211   2850.000    150.000      0.000
node 127    150.000   1950.000      0.000
node 43    900.000   3000.000      0.000
node 212   2850.000    450.000      0.000
node 128    150.000   2250.000      0.000
node 44   1200.000      0.000      0.000
node 214   2850.000   1050.000      0.000
node 129    150.000   2550.000      0.000
node 45   1200.000    300.000      0.000
node 215   2850.000   1350.000      0.000
node 130    150.000   2850.000      0.000
node 46   1200.000    600.000      0.000
node 131    450.000    150.000      0.000
node 47   1200.000    900.000      0.000
node 216   2850.000   1650.000      0.000
node 132    450.000    450.000      0.000
node 48   1200.000   1200.000      0.000
node 217   2850.000   1950.000      0.000
node 136    450.000   1650.000      0.000
# ... 201 like lines cut
#
# Elements
#------------------------------------------------------------------
#
element ShellDKGT 157 53 160 42 0
element ShellDKGT 242 67 181 78 0
element ShellDKGT 44 2 132 4 0
element ShellDKGT 129 46 153 35 0
element ShellDKGT 214 59 174 70 0
element ShellDKGT 101 38 146 27 0
element ShellDKGT 186 51 167 62 0
element ShellDKGT 356 97 210 98 0
element ShellDKGT 158 43 160 54 0
element ShellDKGT 243 78 181 77 0
element ShellDKGT 45 23 132 2 0
element ShellDKGT 130 36 153 47 0
element ShellDKGT 215 70 174 69 0
element ShellDKGT 102 28 146 39 0
element ShellDKGT 187 62 167 61 0
element ShellDKGT 357 108 210 97 0
element ShellDKGT 159 54 160 53 0
element ShellDKGT 244 67 182 68 0
element ShellDKGT 46 4 132 24 0
element ShellDKGT 131 47 153 46 0
# ... 380 like lines cut
#
#
#
#
#------------------------------------------------------------------
# Initial conditions
#------------------------------------------------------------------
#
#    tag   DX   DY   RZ   MX   MY   MZ
fix 0 1 1 1 0 0 0
fix 21 1 1 1 0 0 0
fix 110 1 1 1 0 0 0
fix 120 1 1 1 0 0 0
#
#
#------------------------------------------------------------------
# Connectors
#------------------------------------------------------------------
#

#
#
#
#
# -----------------------------------------------------------------
# -----------------------------------------------------------------
# PROBLEM
# -----------------------------------------------------------------
# -----------------------------------------------------------------
#
##
#
# STEP OSS_5917665728
#
#
timeSeries Constant 0 -factor 1.0
#
# - Displacements
#   -------------
#
#
# - Loads
#   -----
pattern Plain 0 0 -fact 1 {
	load 48 0.0 0.0 -11229.554 0.0 0.0 0.0
	load 53 0.0 0.0 -229.55400000000003 0.0 0.0 0.0
	load 160 0.0 0.0 -114.77700000000003 0.0 0.0 0.0
	load 42 0.0 0.0 -229.5540000000001 0.0 0.0 0.0
	load 67 0.0 0.0 -229.5540000000001 0.0 0.0 0.0
	load 181 0.0 0.0 -114.77700000000003 0.0 0.0 0.0
	load 78 0.0 0.0 -229.55399999999986 0.0 0.0 0.0
	load 2 0.0 0.0 -229.55400000000023 0.0 0.0 0.0
	load 132 0.0 0.0 -114.77700000000004 0.0 0.0 0.0
	load 4 0.0 0.0 -229.5540000000001 0.0 0.0 0.0
	load 46 0.0 0.0 -229.55400000000014 0.0 0.0 0.0
	load 153 0.0 0.0 -114.77700000000003 0.0 0.0 0.0
	load 35 0.0 0.0 -229.55399999999992 0.0 0.0 0.0
	load 59 0.0 0.0 -229.5540000000002 0.0 0.0 0.0
	load 174 0.0 0.0 -114.77700000000003 0.0 0.0 0.0
	load 70 0.0 0.0 -229.5540000000001 0.0 0.0 0.0
	load 38 0.0 0.0 -229.55399999999997 0.0 0.0 0.0
	load 146 0.0 0.0 -114.77700000000003 0.0 0.0 0.0
	load 27 0.0 0.0 -229.5539999999999 0.0 0.0 0.0
	load 51 0.0 0.0 -229.55399999999997 0.0 0.0 0.0
# ... 201 like lines cut
}
#
# - Predefined Fields
#   -----------------
#
#
# - Output Requests
#   ---------------
#
#
recorder Node -file u.out -time -nodeRange 0 220 -dof 1 2 3 disp
recorder Node -file rf.out -time -nodeRange 0 220 -dof 1 2 3 reaction
recorder Element -file s2d.out -time -eleRange 0 399 -dof 1 2 3 4 5 6 stresses
recorder Element -file sf.out -time -eleRange 0 399 -dof 1 2 3 4 5 6 force
#
# - Analysis Parameters
#   -------------------
#
constraints Transformation
numberer RCM
system BandGeneral
test NormDispIncr 1e-06 10
algorithm Newton
integrator LoadControl 1

analysis Static

analyze 1
loadConst -time 0.0

