# ------------------------
# grid
# ------------------------
#
# None
#
#
# Author: None
# Description: None
# Date: 02/01/2025 16:50:08
# Generated by:
#   compas_fea2 v0.2.1
#   compas_fea2_opensees v0.1.0
#
#------------------------------------------------------------------
#------------------------------------------------------------------
# MODEL
#------------------------------------------------------------------
#------------------------------------------------------------------
#
##
model Basic -ndm 3 -ndf 3
#
#==================================================================
# Materials
#==================================================================
#
uniaxialMaterial Elastic 0 210000.0
nDMaterial ElasticIsotropic 1000 210000.0 0.2 7.800000000000002e-09
#
#==================================================================
# Sections
#==================================================================
#
section Elastic 0 210000.0 23400.0 104280000.0 231355000.0 87500.0 11120000.0
#
#==================================================================
# Parts
#==================================================================
#
#
#------------------------------------------------------------------
# Part OP_5905286448
#------------------------------------------------------------------
model Basic -ndm 3 -ndf 6
#
# Nodes
#------------------------------------------------------------------
#
#    tag        X       Y       Z       mx      my      mz
node 27   5000.000   6000.000     -1.254
node 49  10000.000   2000.000      0.000
node 28   5000.000   8000.000    173.387
node 29   5000.000  10000.000      0.000
node 51  10000.000   6000.000      0.000
node 30   6250.000      0.000      0.000
node 4      0.000   8000.000      0.000
node 3      0.000   6000.000      0.000
node 52  10000.000   8000.000      0.000
node 31   6250.000   2000.000   -439.710
node 5      0.000  10000.000      0.000
node 13   2500.000   2000.000    -82.482
node 33   6250.000   6000.000    424.103
node 53  10000.000  10000.000      0.000
node 34   6250.000   8000.000   -236.693
node 36   7500.000      0.000      0.000
node 8   1250.000   4000.000   -297.625
node 2      0.000   4000.000      0.000
node 35   6250.000  10000.000      0.000
node 14   2500.000   4000.000   -347.647
# ... 34 like lines cut
#
# Elements
#------------------------------------------------------------------
#
geomTransf Corotational 3 0.09141223630134467 0.0 0.9958131366146901
element elasticBeamColumn 3 1 2 23400.0 210000.0 87500.0 11120000.0 231355000.0 104280000.0 3
geomTransf Corotational 4 0.23146438631092664 0.0372050107651273 0.9721316912042693
element elasticBeamColumn 4 2 8 23400.0 210000.0 87500.0 11120000.0 231355000.0 104280000.0 4
geomTransf Corotational 44 0.008870708501899135 -0.07424655080068009 0.9972004614042635
element elasticBeamColumn 44 24 25 23400.0 210000.0 87500.0 11120000.0 231355000.0 104280000.0 44
geomTransf Corotational 82 -0.06028691895468559 -0.02288086427450971 0.9979188110527845
element elasticBeamColumn 82 44 50 23400.0 210000.0 87500.0 11120000.0 231355000.0 104280000.0 82
geomTransf Corotational 64 0.09832041678973397 0.009795991056050285 0.9951065943915368
element elasticBeamColumn 64 34 40 23400.0 210000.0 87500.0 11120000.0 231355000.0 104280000.0 64
geomTransf Corotational 2 -0.054388444785552645 0.03708554810293322 0.9978309271593632
element elasticBeamColumn 2 1 7 23400.0 210000.0 87500.0 11120000.0 231355000.0 104280000.0 2
geomTransf Corotational 45 -3.469446951953614e-18 0.07250874346400477 0.9973677767610458
element elasticBeamColumn 45 24 30 23400.0 210000.0 87500.0 11120000.0 231355000.0 104280000.0 45
geomTransf Corotational 83 -0.13204498810417797 0.09780032153291889 0.9864072273785431
element elasticBeamColumn 83 45 46 23400.0 210000.0 87500.0 11120000.0 231355000.0 104280000.0 83
geomTransf Corotational 27 0.11317688035848059 -0.04777520830662469 0.9924255756597472
element elasticBeamColumn 27 14 20 23400.0 210000.0 87500.0 11120000.0 231355000.0 104280000.0 27
geomTransf Corotational 6 0.1795483021000169 -0.0889294250094656 0.9797213708909726
element elasticBeamColumn 6 3 9 23400.0 210000.0 87500.0 11120000.0 231355000.0 104280000.0 6
geomTransf Corotational 46 -0.03704661657016391 -0.15065612768890452 0.9878918358760169
element elasticBeamColumn 46 25 26 23400.0 210000.0 87500.0 11120000.0 231355000.0 104280000.0 46
geomTransf Corotational 84 -0.018349769444638852 0.018112956906003203 0.999667548114597
element elasticBeamColumn 84 45 51 23400.0 210000.0 87500.0 11120000.0 231355000.0 104280000.0 84
geomTransf Corotational 23 -1.734723475976807e-18 0.11804391695875403 0.9930083754274356
element elasticBeamColumn 23 12 18 23400.0 210000.0 87500.0 11120000.0 231355000.0 104280000.0 23
geomTransf Corotational 47 0.42590143209407877 -0.02410377612452806 0.9044484386170121
element elasticBeamColumn 47 25 31 23400.0 210000.0 87500.0 11120000.0 231355000.0 104280000.0 47
geomTransf Corotational 28 -0.0058727493971603515 -0.2783461293825998 0.9604628795910038
element elasticBeamColumn 28 15 16 23400.0 210000.0 87500.0 11120000.0 231355000.0 104280000.0 28
geomTransf Corotational 7 -0.07291420130112354 -1.734723475976807e-18 0.9973382170801536
element elasticBeamColumn 7 3 4 23400.0 210000.0 87500.0 11120000.0 231355000.0 104280000.0 7
geomTransf Corotational 85 -0.07155426149619164 -0.1096679290587731 0.9913893952416954
element elasticBeamColumn 85 46 47 23400.0 210000.0 87500.0 11120000.0 231355000.0 104280000.0 85
geomTransf Corotational 66 -0.04388563389543572 -0.1875167117577202 0.9812805582243883
element elasticBeamColumn 66 36 37 23400.0 210000.0 87500.0 11120000.0 231355000.0 104280000.0 66
geomTransf Corotational 48 -0.1334486909922804 0.2199256072660431 0.9663457839412916
element elasticBeamColumn 48 26 27 23400.0 210000.0 87500.0 11120000.0 231355000.0 104280000.0 48
geomTransf Corotational 29 -0.09641345290741762 -0.1871209360627411 0.9775940882521091
element elasticBeamColumn 29 15 21 23400.0 210000.0 87500.0 11120000.0 231355000.0 104280000.0 29
# ... 146 like lines cut
#
#
#
#
#------------------------------------------------------------------
# Initial conditions
#------------------------------------------------------------------
#
#    tag   DX   DY   RZ   MX   MY   MZ
fix 0 1 1 1 0 0 0
fix 5 1 1 1 0 0 0
fix 48 1 1 1 0 0 0
fix 53 1 1 1 0 0 0
#
#
#------------------------------------------------------------------
# Connectors
#------------------------------------------------------------------
#

#
#
#
#
# -----------------------------------------------------------------
# -----------------------------------------------------------------
# PROBLEM
# -----------------------------------------------------------------
# -----------------------------------------------------------------
#
##
#
# STEP OSS_5907527344
#
#
timeSeries Constant 0 -factor 1.0
#
# - Displacements
#   -------------
#
#
# - Loads
#   -----
pattern Plain 0 0 -fact 1 {
	load 1 0.0 0.0 -4701.779291538041 0.0 0.0 0.0
	load 2 0.0 0.0 -4731.401937091947 0.0 0.0 0.0
	load 8 0.0 0.0 -5882.120130950492 0.0 0.0 0.0
	load 24 0.0 0.0 -4033.6287589166577 0.0 0.0 0.0
	load 25 0.0 0.0 -6063.362716955384 0.0 0.0 0.0
	load 44 0.0 0.0 -5867.171999709955 0.0 0.0 0.0
	load 50 0.0 0.0 -4702.158428863308 0.0 0.0 0.0
	load 34 0.0 0.0 -5991.0189400072695 0.0 0.0 0.0
	load 40 0.0 0.0 -5860.971444936352 0.0 0.0 0.0
	load 7 0.0 0.0 -5859.6835121293625 0.0 0.0 0.0
	load 30 0.0 0.0 -4071.4356414606937 0.0 0.0 0.0
	load 45 0.0 0.0 -5857.351042759978 0.0 0.0 0.0
	load 46 0.0 0.0 -5863.181533409341 0.0 0.0 0.0
	load 14 0.0 0.0 -5855.808973889464 0.0 0.0 0.0
	load 20 0.0 0.0 -6168.168190539452 0.0 0.0 0.0
	load 3 0.0 0.0 -4718.755556318049 0.0 0.0 0.0
	load 9 0.0 0.0 -5933.807482166287 0.0 0.0 0.0
	load 26 0.0 0.0 -6318.162933061848 0.0 0.0 0.0
	load 51 0.0 0.0 -4700.306663712858 0.0 0.0 0.0
	load 12 0.0 0.0 -4030.1947140237676 0.0 0.0 0.0
# ... 34 like lines cut
}
#
# - Predefined Fields
#   -----------------
#
#
# - Output Requests
#   ---------------
#
#
recorder Node -file u.out -time -nodeRange 0 53 -dof 1 2 3 disp
recorder Node -file rf.out -time -nodeRange 0 53 -dof 1 2 3 reaction
recorder Element -file s2d.out -time -eleRange 0 92 -dof 1 2 3 4 5 6 stresses
recorder Element -file sf.out -time -eleRange 0 92 -dof 1 2 3 4 5 6 force
#
# - Analysis Parameters
#   -------------------
#
constraints Transformation
numberer RCM
system BandGeneral
test NormDispIncr 1e-06 10
algorithm Newton
integrator LoadControl 1

analysis Static

analyze 1
loadConst -time 0.0

